LTspice 24.1.8 for Windows
Circuit: C:\Users\ismai\OneDrive\Desktop\MicroProject\Number6.circ
Start Time: Thu May 22 22:48:19 2025
solver = Normal
Maximum thread count: 8
tnom = 27
temp = 27
method = trap
Model "pmos0p18": Oxide thickness thinner than recommended for a level 1 MOSFET.
Instance "M0": Length shorter than recommended for a level 1 MOSFET.
Instance "M0": Width narrower than recommended for a level 1 MOSFET.
Instance "M1": Length shorter than recommended for a level 1 MOSFET.
Instance "M1": Width narrower than recommended for a level 1 MOSFET.
Instance "M2": Length shorter than recommended for a level 1 MOSFET.
Instance "M2": Width narrower than recommended for a level 1 MOSFET.
Instance "M3": Length shorter than recommended for a level 1 MOSFET.
Instance "M3": Width narrower than recommended for a level 1 MOSFET.
Instance "M4": Length shorter than recommended for a level 1 MOSFET.
Instance "M4": Width narrower than recommended for a level 1 MOSFET.
Instance "M5": Length shorter than recommended for a level 1 MOSFET.
Instance "M5": Width narrower than recommended for a level 1 MOSFET.
Instance "M6": Length shorter than recommended for a level 1 MOSFET.
Instance "M6": Width narrower than recommended for a level 1 MOSFET.
Instance "M7": Length shorter than recommended for a level 1 MOSFET.
Instance "M7": Width narrower than recommended for a level 1 MOSFET.
Instance "M8": Length shorter than recommended for a level 1 MOSFET.
Instance "M8": Width narrower than recommended for a level 1 MOSFET.
Instance "M9": Length shorter than recommended for a level 1 MOSFET.
Instance "M9": Width narrower than recommended for a level 1 MOSFET.
Instance "M10": Length shorter than recommended for a level 1 MOSFET.
Instance "M10": Width narrower than recommended for a level 1 MOSFET.
Instance "M11": Length shorter than recommended for a level 1 MOSFET.
Instance "M11": Width narrower than recommended for a level 1 MOSFET.
Model "nmos0p18": Oxide thickness thinner than recommended for a level 1 MOSFET.
Instance "M_inv": Length shorter than recommended for a level 1 MOSFET.
Instance "M_inv": Width narrower than recommended for a level 1 MOSFET.
Instance "M_inv1": Length shorter than recommended for a level 1 MOSFET.
Instance "M_inv1": Width narrower than recommended for a level 1 MOSFET.
Instance "M_inv2": Length shorter than recommended for a level 1 MOSFET.
Instance "M_inv2": Width narrower than recommended for a level 1 MOSFET.
Instance "M_inv3": Length shorter than recommended for a level 1 MOSFET.
Instance "M_inv3": Width narrower than recommended for a level 1 MOSFET.
Instance "M_inv4": Length shorter than recommended for a level 1 MOSFET.
Instance "M_inv4": Width narrower than recommended for a level 1 MOSFET.
Instance "M_inv5": Length shorter than recommended for a level 1 MOSFET.
Instance "M_inv5": Width narrower than recommended for a level 1 MOSFET.
Instance "M12": Length shorter than recommended for a level 1 MOSFET.
Instance "M12": Width narrower than recommended for a level 1 MOSFET.
Instance "M13": Length shorter than recommended for a level 1 MOSFET.
Instance "M13": Width narrower than recommended for a level 1 MOSFET.
Instance "M14": Length shorter than recommended for a level 1 MOSFET.
Instance "M14": Width narrower than recommended for a level 1 MOSFET.
Instance "M15": Length shorter than recommended for a level 1 MOSFET.
Instance "M15": Width narrower than recommended for a level 1 MOSFET.
Instance "M16": Length shorter than recommended for a level 1 MOSFET.
Instance "M16": Width narrower than recommended for a level 1 MOSFET.
Instance "M17": Length shorter than recommended for a level 1 MOSFET.
Instance "M17": Width narrower than recommended for a level 1 MOSFET.
Instance "M18": Length shorter than recommended for a level 1 MOSFET.
Instance "M18": Width narrower than recommended for a level 1 MOSFET.
Instance "M19": Length shorter than recommended for a level 1 MOSFET.
Instance "M19": Width narrower than recommended for a level 1 MOSFET.
Instance "M20": Length shorter than recommended for a level 1 MOSFET.
Instance "M20": Width narrower than recommended for a level 1 MOSFET.
Instance "M21": Length shorter than recommended for a level 1 MOSFET.
Instance "M21": Width narrower than recommended for a level 1 MOSFET.
Instance "M22": Length shorter than recommended for a level 1 MOSFET.
Instance "M22": Width narrower than recommended for a level 1 MOSFET.
Instance "M23": Length shorter than recommended for a level 1 MOSFET.
Instance "M23": Width narrower than recommended for a level 1 MOSFET.
Direct Newton iteration for .op point succeeded.
Total elapsed time: 0.345 seconds.

Files loaded:
C:\Users\ismai\OneDrive\Desktop\MicroProject\Number6.circ
C:\Users\ismai\OneDrive\Desktop\MicroProject\MOSFET_models_0p5_0p18-2.inc

