LTspice 24.1.8 for Windows
Circuit: C:\Users\ismai\OneDrive\Desktop\MicroProject\Part3B.circ
Start Time: Thu May 22 13:56:02 2025
solver = Normal
Maximum thread count: 8
tnom = 27
temp = 27
method = trap
Model "pmos0p5": Oxide thickness thinner than recommended for a level 1 MOSFET.
Instance "M2": Length shorter than recommended for a level 1 MOSFET.
Instance "M2": Width narrower than recommended for a level 1 MOSFET.
Model "nmos0p5": Oxide thickness thinner than recommended for a level 1 MOSFET.
Instance "M1": Length shorter than recommended for a level 1 MOSFET.
Instance "M1": Width narrower than recommended for a level 1 MOSFET.
Direct Newton iteration for .op point succeeded.
Total elapsed time: 0.051 seconds.

Files loaded:
C:\Users\ismai\OneDrive\Desktop\MicroProject\Part3B.circ
C:\Users\ismai\OneDrive\Desktop\MicroProject\MOSFET_models_0p5_0p18-2.inc

tphl=9.12399958903e-10 FROM 7.57575749813e-12 TO 9.19975716401e-10
tplh=-6.05947508856e-13 FROM 2.5924242425e-09 TO 2.59181829499e-09
