LTspice 24.1.8 for Windows
Circuit: C:\Users\ismai\OneDrive\Desktop\MicroProject\Part3A.circ
Start Time: Thu May 22 13:36:25 2025
solver = Normal
Maximum thread count: 8
tnom = 27
temp = 27
method = trap
Model "pmos0p5": Oxide thickness thinner than recommended for a level 1 MOSFET.
Instance "M2": Length shorter than recommended for a level 1 MOSFET.
Instance "M2": Width narrower than recommended for a level 1 MOSFET.
Model "nmos0p5": Oxide thickness thinner than recommended for a level 1 MOSFET.
Instance "M1": Length shorter than recommended for a level 1 MOSFET.
Instance "M1": Width narrower than recommended for a level 1 MOSFET.
Direct Newton iteration for .op point succeeded.
Total elapsed time: 0.145 seconds.

Files loaded:
C:\Users\ismai\OneDrive\Desktop\MicroProject\Part3A.circ
C:\Users\ismai\OneDrive\Desktop\MicroProject\MOSFET_models_0p5_0p18-2.inc

tphl=9.26480147737e-10 FROM 7.57575749813e-12 TO 9.34055905235e-10
tplh=-9.57119902542e-12 FROM 2.5924242425e-09 TO 2.58285304348e-09
